tests/fuzzer/corpus_json/24_columnar_21_random_013.json
{
  "version": "1.0",
  "type": "input",
  "is_batch": false,
  "attributes": {
    "node": [
      "id",
      "u_rated"
    ],
    "source": [
      "id",
      "node",
      "status",
      "u_ref",
      "u_ref_angle",
      "sk",
      "rx_ratio",
      "z01_ratio"
    ],
    "line": [
      "id",
      "from_node",
      "to_node",
      "from_status",
      "to_status",
      "r1",
      "x1",
      "c1",
      "tan1",
      "r0",
      "x0",
      "c0",
      "tan0",
      "i_n"
    ],
    "sym_load": [
      "id",
      "node",
      "status",
      "type",
      "p_specified",
      "q_specified"
    ]
  },
  "data": {
    "node": [
      [
        0,
        10000.0
      ],
      [
        1,
        10000.0
      ],
      [
        2,
        10000.0
      ],
      [
        3,
        10000.0
      ],
      [
        4,
        10000.0
      ],
      [
        5,
        10000.0
      ]
    ],
    "source": [
      [
        6,
        0,
        1,
        1.0368163836032223,
        0.0,
        685289467.1652405,
        0.4246680806949651,
        1.0
      ],
      [
        7,
        5,
        1,
        1.0,
        0.0,
        230635553.10457155,
        0.1,
        1.0
      ]
    ],
    "line": [
      [
        8,
        0,
        1,
        1,
        1,
        0.7357995908420889,
        1.1258146778105633,
        7.340236022127729e-07,
        0.0,
        0.3,
        0.3,
        1e-09,
        0.0,
        138.91089253215932
      ],
      [
        9,
        1,
        2,
        1,
        1,
        2.6565737592350915,
        1.0695376524587035,
        2.946567537633625e-07,
        0.0,
        0.3,
        0.3,
        1e-09,
        0.0,
        437.26452510829046
      ],
      [
        10,
        2,
        3,
        1,
        1,
        4.18828255251649,
        3.042010739371432,
        1.4432392962091865e-08,
        0.0,
        0.3,
        0.3,
        1e-09,
        0.0,
        283.0784853997651
      ],
      [
        11,
        3,
        4,
        1,
        1,
        0.7335516097005729,
        4.356423645992199,
        8.097396112110605e-07,
        0.0,
        0.3,
        0.3,
        1e-09,
        0.0,
        807.9863696532386
      ],
      [
        12,
        4,
        5,
        1,
        1,
        4.131826700682412,
        3.723750764011038,
        9.493234167956348e-07,
        0.0,
        0.3,
        0.3,
        1e-09,
        0.0,
        795.8328452575549
      ]
    ],
    "sym_load": [
      [
        13,
        1,
        1,
        0,
        -2642.901393412365,
        5100.077025548022
      ],
      [
        14,
        2,
        1,
        1,
        34145.6657114664,
        7772.5877508256235
      ],
      [
        15,
        5,
        1,
        2,
        59651.72742871157,
        9713.623711897402
      ]
    ]
  }
}
